/*--------------------------------*- C++ -*----------------------------------*\
  =========                 |
  \\      /  F ield         | OpenFOAM: The Open Source CFD Toolbox
   \\    /   O peration     | Website:  https://openfoam.org
    \\  /    A nd           | Version:  10
     \\/     M anipulation  |
\*---------------------------------------------------------------------------*/
FoamFile
{
    format      ascii;
    class       dictionary;
    location    "system";
    object      controlDict;
}
// * * * * * * * * * * * * * * * * * * * * * * * * * * * * * * * * * * * * * //

application     laplacianFoam;

startFrom       startTime;

startTime       0;

stopAt          endTime;

endTime         0.1;

deltaT          0.005;

writeControl    runTime;

writeInterval   0.1;

purgeWrite      0;

writeFormat     ascii;

writePrecision  6;

writeCompression off;

timeFormat      general;

timePrecision   6;

runTimeModifiable true;

functions
{
  probes1
  {
  type probes;

  functionObjectLibs ("libsampling.so");

  region region0;

  probeLocations
  (
		(0.168 0.263 0.05)
		(0.063 0.043 0.05)
		(0.867 0.445 0.05)
		(0.711 0.292 0.05)
		(0.412 0.329 0.05)
		(0.593 0.193 0.05)
		(0.096 0.227 0.05)
		(0.67 0.104 0.05)
		(0.814 0.064 0.05)
		(0.109 0.083 0.05)
		(0.666 0.216 0.05)
		(0.024 0.399 0.05)
		(0.56 0.276 0.05)
		(0.322 0.374 0.05)
		(0.25 0.009 0.05)
		(0.21 0.343 0.05)
		(0.277 0.128 0.05)
		(0.957 0.136 0.05)
		(0.933 0.496 0.05)
		(0.151 0.175 0.05)
		(0.461 0.409 0.05)
		(0.385 0.47 0.05)
		(0.785 0.032 0.05)
		(0.511 0.091 0.05)
		(0.488 0.458 0.05)
		(0.619 0.307 0.05)
		(0.355 0.361 0.05)
		(0.865 0.425 0.05)
		(0.976 0.163 0.05)
		(0.765 0.249 0.05)
  );

  fields
  (
  T
  );

  outputControl timeStep;
  outputInterval 1;
  }
}
// ************************************************************************* //
